
    FoamFile
    {
        format      ascii;
        class       dictionary;
        object      blockMeshDict;
    }

    convertToMeters 1.0;

    vertices 
    (
        ( 0.00351  0.0  0.0)
        ( 0.01149  0.0  0.0)
        ( 0.01149  0.015  0.0)
        ( 0.00351  0.015  0.0)
        ( 0.00351  0.0  0.004)
        ( 0.01149  0.0  0.004)
        ( 0.01149  0.015  0.004)
        ( 0.00351  0.015  0.004)
    );

    blocks
    (
        hex (0 1 2 3 4 5 6 7) (100 150 20) simpleGrading (1 1 1)
    );

    edges (
    );

    boundary (
        inlet
        {
            type patch;
            faces
            (
                (0 3 7 4) // left face
            );
        }

        outlet
        {
            type patch;
            faces
            (
                (1 5 6 2) // right face
            );
        }

        walls
        {
            type wall;
            faces
            (
                (0 1 5 4) 
                (4 5 6 7)
                (1 0 3 2)
                (7 6 2 3) 
            );
        }
    );
    